Circuit: * E:\SOMElectro\PROJEKTY\PCrs\PCrs_v2.1_new\PCB\PSU measurements\LTspice\buck_sim.asc

c1: Increased Cpar to 2.2e-11
c2: Increased Cpar to 2.2e-11
c3: Increased Cpar to 2.2e-11
c4: Increased Cpar to 2.2e-11
c5: Increased Cpar to 2.2e-10
Direct Newton iteration for .op point succeeded.

Date: Mon Feb 24 17:36:01 2025
Total elapsed time: 0.044 seconds.

tnom = 27
temp = 27
method = trap
totiter = 3
traniter = 0
tranpoints = 0
accept = 0
rejected = 0
matrix size = 6
fillins = 0
solver = Normal
Avg thread counts: 8.0/0.0/8.0/4.0
Matrix Compiler1:       9 opcodes
Matrix Compiler2: 326 bytes object code size
